test/test_files/matlab_test_files/d_kundur1_equiv.m
% d_kundur1_mdl (Equivalent network created by PSAT)
%

Bus.con = [ Bus.con; ...
      6      230   0.9876  0.03665    1    1;
      7      230        1  -0.1065    1    1;
      8      230        1  -0.3368    3    1;
      9      230   0.9899   -0.555    2    1;
     10      230   0.9938  -0.4119    2    1;
   ];

Bus.names = [ Bus.names; { ...
    'Bus 06';
    'Bus 07';
    'Bus 08';
    'Bus 09';
    'Bus 10';
   }];

Line.con = [ Line.con; ...
      6    7      100      230       60        0        0    0.001     0.01   0.0175        1        0        1        0        0  1;
      7    8      100      230       60        0        0    0.011     0.11   0.1925        1        0        1        0        0  1;
      8    9      100      230       60        0        0    0.011     0.11  0.09625        1        0        1        0        0  1;
      8    9      100      230       60        0        0    0.011     0.11   0.1925        1        0        1        0        0  1;
      9   10      100      230       60        0        0    0.001     0.01   0.0175        1        0        1        0        0  1;
      7    8      100      230       60        0        0    0.011     0.11  0.09625        1        0        1        0        0  1;
   ];

PQ.con = [ PQ.con; ...
      9      100      230    17.67     -2.5     1.05     0.95  0  1;
      7      100      230     9.67       -1     1.05     0.95  0  1;
   ];

Pl.con = [ Pl.con; ...
      7      100      230       60        0      100        0        0        0      100  1  1;
      9      100      230       60        0      100        0        0        0      100  1  1;
   ];

Line.con = [ Line.con; ...
      6   17      100      230       50        0        0 0.0002037  0.01191        0        0        0        0        0        0  1;
     10   21      100      230       50        0        0 0.0002037  0.01191        0        0        0        0        0        0  1;
   ];

Bus.con = [ Bus.con; ...
     17      230   0.9876  0.03665    1    1;
     21      230   0.9938  -0.4119    2    1;
   ];

Bus.names = [ Bus.names; { ...
    'XBus 06';
    'XBus 10';
   }];

Syn.con = [ Syn.con; ...
     17     1800      230       60    6      0.2   0.0025      1.8      0.3     0.25        8     0.03      1.7     0.55     0.25      0.4     0.05       13        0        0        0        1        1        0        0        0    1  1;
     21     1800      230       60    6      0.2   0.0025      1.8      0.3     0.25        8     0.03      1.7     0.55     0.25      0.4     0.05    12.35        0        0        0        1        1        0        0        0    1  1;
   ];

SW.con = [ SW.con; ...
     21      100      230    1.011  -0.2449        0        0      1.1      0.9     14.1        1  1  1;
   ];

PV.con = [ PV.con; ...
     17      100      230    13.92    1.011        0        0      1.1      0.9        1  1;
   ];
